MODEL 1
REMARK VINA RESULT:     -10.9      0.000      0.000
REMARK  Name = 5997
REMARK  11 active torsions:
REMARK  status: ('A' for Active; 'I' for Inactive)
REMARK    1  A    between atoms: O_1  and  C_22
REMARK    2  A    between atoms: C_2  and  C_14
REMARK    3  A    between atoms: C_6  and  C_13
REMARK    4  A    between atoms: C_8  and  C_18
REMARK    5  A    between atoms: C_13  and  C_21
REMARK    6  A    between atoms: C_13  and  C_23
REMARK    7  A    between atoms: C_21  and  C_24
REMARK    8  A    between atoms: C_24  and  C_25
REMARK    9  A    between atoms: C_25  and  C_26
REMARK   10  A    between atoms: C_26  and  C_27
REMARK   11  A    between atoms: C_26  and  C_28
REMARK                            x       y       z     vdW  Elec       q    Type
REMARK                         _______ _______ _______ _____ _____    ______ ____
ROOT
ATOM      1  C   UNL     1     -25.269   5.139  56.224  0.00  0.00    +0.000 C 
ATOM      2  C   UNL     1     -24.380   4.986  55.793  0.00  0.00    +0.000 C 
ATOM      3  C   UNL     1     -23.539   5.168  56.304  0.00  0.00    +0.000 C 
ATOM      4  C   UNL     1     -23.589   5.504  57.245  0.00  0.00    +0.000 C 
ATOM      5  C   UNL     1     -25.972   4.903  55.562  0.00  0.00    +0.000 C 
ATOM      6  C   UNL     1     -25.319   5.474  57.165  0.00  0.00    +0.000 C 
ATOM      7  C   UNL     1     -22.722   5.698  57.789  0.00  0.00    +0.000 C 
ATOM      8  C   UNL     1     -24.540   4.657  54.870  0.00  0.00    +0.000 C 
ATOM      9  C   UNL     1     -24.478   5.656  57.675  0.00  0.00    +0.000 C 
ATOM     10  C   UNL     1     -25.523   4.605  54.726  0.00  0.00    +0.000 C 
ATOM     11  C   UNL     1     -22.620   5.004  55.842  0.00  0.00    +0.000 C 
ATOM     12  C   UNL     1     -26.159   5.292  56.654  0.00  0.00    +0.000 C 
ATOM     13  C   UNL     1     -21.792   5.541  57.348  0.00  0.00    +0.000 C 
ATOM     14  C   UNL     1     -22.801   6.061  58.809  0.00  0.00    +0.000 C 
ATOM     15  C   UNL     1     -21.740   5.192  56.368  0.00  0.00    +0.000 C 
ATOM     16  C   UNL     1     -23.616   5.849  58.213  0.00  0.00    +0.000 C 
ATOM     17  C   UNL     1     -20.875   5.737  57.896  0.00  0.00    +0.000 C 
ATOM     18  C   UNL     1     -21.898   6.264  59.376  0.00  0.00    +0.000 C 
ATOM     19  C   UNL     1     -20.929   6.101  58.916  0.00  0.00    +0.000 C 
ENDROOT
BRANCH   5  20
ATOM     20  C   UNL     1     -26.960   4.955  55.710  0.00  0.00    +0.000 C 
ATOM     21  C   UNL     1     -27.440   5.821  55.573  0.00  0.00    +0.000 C 
BRANCH  20  22
ATOM     22  C   UNL     1     -27.466   4.142  55.996  0.00  0.00    +0.000 C 
BRANCH  22  23
ATOM     23  C   UNL     1     -28.303   3.880  55.515  0.00  0.00    +0.000 C 
BRANCH  23  24
ATOM     24  C   UNL     1     -28.578   2.919  55.477  0.00  0.00    +0.000 C 
BRANCH  24  25
ATOM     25  C   UNL     1     -29.531   2.679  55.293  0.00  0.00    +0.000 C 
ATOM     26  C   UNL     1     -30.043   2.126  55.949  0.00  0.00    +0.000 C 
ATOM     27  C   UNL     1     -29.972   2.992  54.451  0.00  0.00    +0.000 C 
ENDBRANCH  24  25
ENDBRANCH  23  24
ENDBRANCH  22  23
ENDBRANCH  20  22
ENDBRANCH   5  20
BRANCH  19  28
ATOM     28  O   UNL     1     -20.091   6.284  59.430  0.00  0.00    +0.000 OA
ATOM     29  H   UNL     1     -19.656   6.656  59.190  0.00  0.00    +0.000 HD
ENDBRANCH  19  28
TORSDOF 6
ENDMDL
MODEL 2
REMARK VINA RESULT:     -10.9      0.679      1.795
REMARK  Name = 5997
REMARK  11 active torsions:
REMARK  status: ('A' for Active; 'I' for Inactive)
REMARK    1  A    between atoms: O_1  and  C_22
REMARK    2  A    between atoms: C_2  and  C_14
REMARK    3  A    between atoms: C_6  and  C_13
REMARK    4  A    between atoms: C_8  and  C_18
REMARK    5  A    between atoms: C_13  and  C_21
REMARK    6  A    between atoms: C_13  and  C_23
REMARK    7  A    between atoms: C_21  and  C_24
REMARK    8  A    between atoms: C_24  and  C_25
REMARK    9  A    between atoms: C_25  and  C_26
REMARK   10  A    between atoms: C_26  and  C_27
REMARK   11  A    between atoms: C_26  and  C_28
REMARK                            x       y       z     vdW  Elec       q    Type
REMARK                         _______ _______ _______ _____ _____    ______ ____
ROOT
ATOM      1  C   UNL     1     -25.320   5.318  56.510  0.00  0.00    +0.000 C 
ATOM      2  C   UNL     1     -24.960   5.755  57.334  0.00  0.00    +0.000 C 
ATOM      3  C   UNL     1     -23.972   5.791  57.489  0.00  0.00    +0.000 C 
ATOM      4  C   UNL     1     -23.346   5.391  56.820  0.00  0.00    +0.000 C 
ATOM      5  C   UNL     1     -26.311   5.384  56.540  0.00  0.00    +0.000 C 
ATOM      6  C   UNL     1     -24.694   4.918  55.841  0.00  0.00    +0.000 C 
ATOM      7  C   UNL     1     -22.315   5.422  56.968  0.00  0.00    +0.000 C 
ATOM      8  C   UNL     1     -25.731   6.086  57.866  0.00  0.00    +0.000 C 
ATOM      9  C   UNL     1     -23.707   4.955  55.996  0.00  0.00    +0.000 C 
ATOM     10  C   UNL     1     -26.565   5.857  57.376  0.00  0.00    +0.000 C 
ATOM     11  C   UNL     1     -23.611   6.250  58.353  0.00  0.00    +0.000 C 
ATOM     12  C   UNL     1     -25.681   4.881  55.686  0.00  0.00    +0.000 C 
ATOM     13  C   UNL     1     -21.932   5.875  57.824  0.00  0.00    +0.000 C 
ATOM     14  C   UNL     1     -21.655   4.981  56.228  0.00  0.00    +0.000 C 
ATOM     15  C   UNL     1     -22.584   6.292  58.521  0.00  0.00    +0.000 C 
ATOM     16  C   UNL     1     -22.684   4.987  56.146  0.00  0.00    +0.000 C 
ATOM     17  C   UNL     1     -20.861   5.919  58.000  0.00  0.00    +0.000 C 
ATOM     18  C   UNL     1     -20.581   5.013  56.382  0.00  0.00    +0.000 C 
ATOM     19  C   UNL     1     -20.183   5.485  57.274  0.00  0.00    +0.000 C 
ENDROOT
BRANCH   5  20
ATOM     20  C   UNL     1     -26.944   5.033  55.849  0.00  0.00    +0.000 C 
ATOM     21  C   UNL     1     -27.243   5.625  55.100  0.00  0.00    +0.000 C 
BRANCH  20  22
ATOM     22  C   UNL     1     -27.278   4.093  55.907  0.00  0.00    +0.000 C 
BRANCH  22  23
ATOM     23  C   UNL     1     -28.200   3.869  55.590  0.00  0.00    +0.000 C 
BRANCH  23  24
ATOM     24  C   UNL     1     -28.487   2.914  55.524  0.00  0.00    +0.000 C 
BRANCH  24  25
ATOM     25  C   UNL     1     -29.449   2.690  55.369  0.00  0.00    +0.000 C 
ATOM     26  C   UNL     1     -29.957   2.166  56.052  0.00  0.00    +0.000 C 
ATOM     27  C   UNL     1     -29.904   2.992  54.531  0.00  0.00    +0.000 C 
ENDBRANCH  24  25
ENDBRANCH  23  24
ENDBRANCH  22  23
ENDBRANCH  20  22
ENDBRANCH   5  20
BRANCH  19  28
ATOM     28  O   UNL     1     -19.195   5.520  57.426  0.00  0.00    +0.000 OA
ATOM     29  H   UNL     1     -18.968   5.800  57.931  0.00  0.00    +0.000 HD
ENDBRANCH  19  28
TORSDOF 6
ENDMDL
MODEL 3
REMARK VINA RESULT:     -10.5      2.790      6.941
REMARK  Name = 5997
REMARK  11 active torsions:
REMARK  status: ('A' for Active; 'I' for Inactive)
REMARK    1  A    between atoms: O_1  and  C_22
REMARK    2  A    between atoms: C_2  and  C_14
REMARK    3  A    between atoms: C_6  and  C_13
REMARK    4  A    between atoms: C_8  and  C_18
REMARK    5  A    between atoms: C_13  and  C_21
REMARK    6  A    between atoms: C_13  and  C_23
REMARK    7  A    between atoms: C_21  and  C_24
REMARK    8  A    between atoms: C_24  and  C_25
REMARK    9  A    between atoms: C_25  and  C_26
REMARK   10  A    between atoms: C_26  and  C_27
REMARK   11  A    between atoms: C_26  and  C_28
REMARK                            x       y       z     vdW  Elec       q    Type
REMARK                         _______ _______ _______ _____ _____    ______ ____
ROOT
ATOM      1  C   UNL     1     -26.804   4.709  56.440  0.00  0.00    +0.000 C 
ATOM      2  C   UNL     1     -27.187   3.787  56.493  0.00  0.00    +0.000 C 
ATOM      3  C   UNL     1     -27.921   3.514  55.871  0.00  0.00    +0.000 C 
ATOM      4  C   UNL     1     -28.271   4.163  55.196  0.00  0.00    +0.000 C 
ATOM      5  C   UNL     1     -26.095   4.784  57.132  0.00  0.00    +0.000 C 
ATOM      6  C   UNL     1     -27.155   5.358  55.765  0.00  0.00    +0.000 C 
ATOM      7  C   UNL     1     -29.036   3.893  54.542  0.00  0.00    +0.000 C 
ATOM      8  C   UNL     1     -26.711   3.301  57.217  0.00  0.00    +0.000 C 
ATOM      9  C   UNL     1     -27.888   5.085  55.143  0.00  0.00    +0.000 C 
ATOM     10  C   UNL     1     -26.037   3.916  57.612  0.00  0.00    +0.000 C 
ATOM     11  C   UNL     1     -28.310   2.550  55.938  0.00  0.00    +0.000 C 
ATOM     12  C   UNL     1     -26.421   5.632  56.387  0.00  0.00    +0.000 C 
ATOM     13  C   UNL     1     -29.440   2.934  54.591  0.00  0.00    +0.000 C 
ATOM     14  C   UNL     1     -29.400   4.614  53.818  0.00  0.00    +0.000 C 
ATOM     15  C   UNL     1     -29.074   2.258  55.294  0.00  0.00    +0.000 C 
ATOM     16  C   UNL     1     -28.648   4.814  54.495  0.00  0.00    +0.000 C 
ATOM     17  C   UNL     1     -30.237   2.630  53.919  0.00  0.00    +0.000 C 
ATOM     18  C   UNL     1     -30.196   4.333  53.136  0.00  0.00    +0.000 C 
ATOM     19  C   UNL     1     -30.617   3.334  53.188  0.00  0.00    +0.000 C 
ENDROOT
BRANCH   5  20
ATOM     20  C   UNL     1     -25.536   5.594  57.314  0.00  0.00    +0.000 C 
ATOM     21  C   UNL     1     -25.951   6.406  57.723  0.00  0.00    +0.000 C 
BRANCH  20  22
ATOM     22  C   UNL     1     -24.562   5.590  57.088  0.00  0.00    +0.000 C 
BRANCH  22  23
ATOM     23  C   UNL     1     -23.895   5.943  57.745  0.00  0.00    +0.000 C 
BRANCH  23  24
ATOM     24  C   UNL     1     -22.928   5.707  57.651  0.00  0.00    +0.000 C 
BRANCH  24  25
ATOM     25  C   UNL     1     -22.267   6.025  58.330  0.00  0.00    +0.000 C 
ATOM     26  C   UNL     1     -21.436   6.495  58.036  0.00  0.00    +0.000 C 
ATOM     27  C   UNL     1     -22.438   5.872  59.304  0.00  0.00    +0.000 C 
ENDBRANCH  24  25
ENDBRANCH  23  24
ENDBRANCH  22  23
ENDBRANCH  20  22
ENDBRANCH   5  20
BRANCH  19  28
ATOM     28  O   UNL     1     -31.351   3.065  52.564  0.00  0.00    +0.000 OA
ATOM     29  H   UNL     1     -31.495   2.465  52.495  0.00  0.00    +0.000 HD
ENDBRANCH  19  28
TORSDOF 6
ENDMDL
MODEL 4
REMARK VINA RESULT:     -10.3      0.955      1.976
REMARK  Name = 5997
REMARK  11 active torsions:
REMARK  status: ('A' for Active; 'I' for Inactive)
REMARK    1  A    between atoms: O_1  and  C_22
REMARK    2  A    between atoms: C_2  and  C_14
REMARK    3  A    between atoms: C_6  and  C_13
REMARK    4  A    between atoms: C_8  and  C_18
REMARK    5  A    between atoms: C_13  and  C_21
REMARK    6  A    between atoms: C_13  and  C_23
REMARK    7  A    between atoms: C_21  and  C_24
REMARK    8  A    between atoms: C_24  and  C_25
REMARK    9  A    between atoms: C_25  and  C_26
REMARK   10  A    between atoms: C_26  and  C_27
REMARK   11  A    between atoms: C_26  and  C_28
REMARK                            x       y       z     vdW  Elec       q    Type
REMARK                         _______ _______ _______ _____ _____    ______ ____
ROOT
ATOM      1  C   UNL     1     -25.856   5.144  55.731  0.00  0.00    +0.000 C 
ATOM      2  C   UNL     1     -25.930   5.626  56.604  0.00  0.00    +0.000 C 
ATOM      3  C   UNL     1     -25.111   5.802  57.150  0.00  0.00    +0.000 C 
ATOM      4  C   UNL     1     -24.217   5.496  56.822  0.00  0.00    +0.000 C 
ATOM      5  C   UNL     1     -26.769   5.068  55.347  0.00  0.00    +0.000 C 
ATOM      6  C   UNL     1     -24.962   4.838  55.403  0.00  0.00    +0.000 C 
ATOM      7  C   UNL     1     -23.354   5.672  57.379  0.00  0.00    +0.000 C 
ATOM      8  C   UNL     1     -26.889   5.843  56.752  0.00  0.00    +0.000 C 
ATOM      9  C   UNL     1     -24.142   5.014  55.949  0.00  0.00    +0.000 C 
ATOM     10  C   UNL     1     -27.406   5.499  55.975  0.00  0.00    +0.000 C 
ATOM     11  C   UNL     1     -25.204   6.305  58.058  0.00  0.00    +0.000 C 
ATOM     12  C   UNL     1     -25.781   4.662  54.858  0.00  0.00    +0.000 C 
ATOM     13  C   UNL     1     -23.424   6.173  58.290  0.00  0.00    +0.000 C 
ATOM     14  C   UNL     1     -22.395   5.331  57.003  0.00  0.00    +0.000 C 
ATOM     15  C   UNL     1     -24.355   6.492  58.632  0.00  0.00    +0.000 C 
ATOM     16  C   UNL     1     -23.288   5.191  56.505  0.00  0.00    +0.000 C 
ATOM     17  C   UNL     1     -22.539   6.368  58.888  0.00  0.00    +0.000 C 
ATOM     18  C   UNL     1     -21.497   5.515  57.584  0.00  0.00    +0.000 C 
ATOM     19  C   UNL     1     -21.570   6.036  58.532  0.00  0.00    +0.000 C 
ENDROOT
BRANCH   5  20
ATOM     20  C   UNL     1     -27.005   4.633  54.477  0.00  0.00    +0.000 C 
ATOM     21  C   UNL     1     -26.899   5.139  53.621  0.00  0.00    +0.000 C 
BRANCH  20  22
ATOM     22  C   UNL     1     -27.347   3.694  54.465  0.00  0.00    +0.000 C 
BRANCH  22  23
ATOM     23  C   UNL     1     -28.169   3.468  53.940  0.00  0.00    +0.000 C 
BRANCH  23  24
ATOM     24  C   UNL     1     -28.582   2.562  54.025  0.00  0.00    +0.000 C 
BRANCH  24  25
ATOM     25  C   UNL     1     -29.472   2.378  53.609  0.00  0.00    +0.000 C 
ATOM     26  C   UNL     1     -30.305   2.742  54.026  0.00  0.00    +0.000 C 
ATOM     27  C   UNL     1     -29.530   1.829  52.775  0.00  0.00    +0.000 C 
ENDBRANCH  24  25
ENDBRANCH  23  24
ENDBRANCH  22  23
ENDBRANCH  20  22
ENDBRANCH   5  20
BRANCH  19  28
ATOM     28  O   UNL     1     -20.748   6.211  59.075  0.00  0.00    +0.000 OA
ATOM     29  H   UNL     1     -20.766   6.152  59.692  0.00  0.00    +0.000 HD
ENDBRANCH  19  28
TORSDOF 6
ENDMDL
MODEL 5
REMARK VINA RESULT:     -10.3     14.678     15.891
REMARK  Name = 5997
REMARK  11 active torsions:
REMARK  status: ('A' for Active; 'I' for Inactive)
REMARK    1  A    between atoms: O_1  and  C_22
REMARK    2  A    between atoms: C_2  and  C_14
REMARK    3  A    between atoms: C_6  and  C_13
REMARK    4  A    between atoms: C_8  and  C_18
REMARK    5  A    between atoms: C_13  and  C_21
REMARK    6  A    between atoms: C_13  and  C_23
REMARK    7  A    between atoms: C_21  and  C_24
REMARK    8  A    between atoms: C_24  and  C_25
REMARK    9  A    between atoms: C_25  and  C_26
REMARK   10  A    between atoms: C_26  and  C_27
REMARK   11  A    between atoms: C_26  and  C_28
REMARK                            x       y       z     vdW  Elec       q    Type
REMARK                         _______ _______ _______ _____ _____    ______ ____
ROOT
ATOM      1  C   UNL     1     -38.907   4.816  49.498  0.00  0.00    +0.000 C 
ATOM      2  C   UNL     1     -38.718   4.884  50.477  0.00  0.00    +0.000 C 
ATOM      3  C   UNL     1     -38.644   5.781  50.912  0.00  0.00    +0.000 C 
ATOM      4  C   UNL     1     -38.761   6.612  50.367  0.00  0.00    +0.000 C 
ATOM      5  C   UNL     1     -38.941   3.852  49.260  0.00  0.00    +0.000 C 
ATOM      6  C   UNL     1     -39.024   5.647  48.953  0.00  0.00    +0.000 C 
ATOM      7  C   UNL     1     -38.687   7.554  50.805  0.00  0.00    +0.000 C 
ATOM      8  C   UNL     1     -38.636   3.961  50.836  0.00  0.00    +0.000 C 
ATOM      9  C   UNL     1     -38.950   6.544  49.387  0.00  0.00    +0.000 C 
ATOM     10  C   UNL     1     -38.774   3.324  50.085  0.00  0.00    +0.000 C 
ATOM     11  C   UNL     1     -38.446   5.836  51.933  0.00  0.00    +0.000 C 
ATOM     12  C   UNL     1     -39.097   4.749  48.518  0.00  0.00    +0.000 C 
ATOM     13  C   UNL     1     -38.490   7.632  51.825  0.00  0.00    +0.000 C 
ATOM     14  C   UNL     1     -38.817   8.441  50.194  0.00  0.00    +0.000 C 
ATOM     15  C   UNL     1     -38.369   6.767  52.393  0.00  0.00    +0.000 C 
ATOM     16  C   UNL     1     -38.877   7.478  49.826  0.00  0.00    +0.000 C 
ATOM     17  C   UNL     1     -38.409   8.603  52.305  0.00  0.00    +0.000 C 
ATOM     18  C   UNL     1     -38.741   9.422  50.650  0.00  0.00    +0.000 C 
ATOM     19  C   UNL     1     -38.535   9.503  51.713  0.00  0.00    +0.000 C 
ENDROOT
BRANCH   5  20
ATOM     20  C   UNL     1     -39.114   3.478  48.348  0.00  0.00    +0.000 C 
ATOM     21  C   UNL     1     -40.053   3.326  48.041  0.00  0.00    +0.000 C 
BRANCH  20  22
ATOM     22  C   UNL     1     -38.348   3.256  47.746  0.00  0.00    +0.000 C 
BRANCH  22  23
ATOM     23  C   UNL     1     -38.311   2.366  47.290  0.00  0.00    +0.000 C 
BRANCH  23  24
ATOM     24  C   UNL     1     -37.448   2.033  46.913  0.00  0.00    +0.000 C 
BRANCH  24  25
ATOM     25  C   UNL     1     -37.412   1.147  46.453  0.00  0.00    +0.000 C 
ATOM     26  C   UNL     1     -37.302   0.310  46.988  0.00  0.00    +0.000 C 
ATOM     27  C   UNL     1     -37.486   1.097  45.456  0.00  0.00    +0.000 C 
ENDBRANCH  24  25
ENDBRANCH  23  24
ENDBRANCH  22  23
ENDBRANCH  20  22
ENDBRANCH   5  20
BRANCH  19  28
ATOM     28  O   UNL     1     -38.462  10.402  52.144  0.00  0.00    +0.000 OA
ATOM     29  H   UNL     1     -38.932  10.622  52.485  0.00  0.00    +0.000 HD
ENDBRANCH  19  28
TORSDOF 6
ENDMDL
MODEL 6
REMARK VINA RESULT:     -10.2     18.767     20.722
REMARK  Name = 5997
REMARK  11 active torsions:
REMARK  status: ('A' for Active; 'I' for Inactive)
REMARK    1  A    between atoms: O_1  and  C_22
REMARK    2  A    between atoms: C_2  and  C_14
REMARK    3  A    between atoms: C_6  and  C_13
REMARK    4  A    between atoms: C_8  and  C_18
REMARK    5  A    between atoms: C_13  and  C_21
REMARK    6  A    between atoms: C_13  and  C_23
REMARK    7  A    between atoms: C_21  and  C_24
REMARK    8  A    between atoms: C_24  and  C_25
REMARK    9  A    between atoms: C_25  and  C_26
REMARK   10  A    between atoms: C_26  and  C_27
REMARK   11  A    between atoms: C_26  and  C_28
REMARK                            x       y       z     vdW  Elec       q    Type
REMARK                         _______ _______ _______ _____ _____    ______ ____
ROOT
ATOM      1  C   UNL     1     -41.584  13.996  64.573  0.00  0.00    +0.000 C 
ATOM      2  C   UNL     1     -41.766  14.276  65.516  0.00  0.00    +0.000 C 
ATOM      3  C   UNL     1     -41.420  15.151  65.853  0.00  0.00    +0.000 C 
ATOM      4  C   UNL     1     -40.892  15.747  65.248  0.00  0.00    +0.000 C 
ATOM      5  C   UNL     1     -42.006  13.108  64.432  0.00  0.00    +0.000 C 
ATOM      6  C   UNL     1     -41.056  14.592  63.968  0.00  0.00    +0.000 C 
ATOM      7  C   UNL     1     -40.525  16.662  65.586  0.00  0.00    +0.000 C 
ATOM      8  C   UNL     1     -42.298  13.557  65.949  0.00  0.00    +0.000 C 
ATOM      9  C   UNL     1     -40.710  15.468  64.306  0.00  0.00    +0.000 C 
ATOM     10  C   UNL     1     -42.447  12.836  65.280  0.00  0.00    +0.000 C 
ATOM     11  C   UNL     1     -41.617  15.429  66.838  0.00  0.00    +0.000 C 
ATOM     12  C   UNL     1     -41.402  13.717  63.630  0.00  0.00    +0.000 C 
ATOM     13  C   UNL     1     -40.710  16.960  66.567  0.00  0.00    +0.000 C 
ATOM     14  C   UNL     1     -39.954  17.292  64.911  0.00  0.00    +0.000 C 
ATOM     15  C   UNL     1     -41.260  16.339  67.197  0.00  0.00    +0.000 C 
ATOM     16  C   UNL     1     -40.347  16.376  64.644  0.00  0.00    +0.000 C 
ATOM     17  C   UNL     1     -40.338  17.908  66.941  0.00  0.00    +0.000 C 
ATOM     18  C   UNL     1     -39.572  18.244  65.263  0.00  0.00    +0.000 C 
ATOM     19  C   UNL     1     -39.766  18.554  66.284  0.00  0.00    +0.000 C 
ENDROOT
BRANCH   5  20
ATOM     20  C   UNL     1     -41.990  12.578  63.584  0.00  0.00    +0.000 C 
ATOM     21  C   UNL     1     -42.702  12.715  62.895  0.00  0.00    +0.000 C 
BRANCH  20  22
ATOM     22  C   UNL     1     -41.262  11.912  63.424  0.00  0.00    +0.000 C 
BRANCH  22  23
ATOM     23  C   UNL     1     -41.483  11.005  63.063  0.00  0.00    +0.000 C 
BRANCH  23  24
ATOM     24  C   UNL     1     -40.792  10.284  63.066  0.00  0.00    +0.000 C 
BRANCH  24  25
ATOM     25  C   UNL     1     -40.961   9.427  62.580  0.00  0.00    +0.000 C 
ATOM     26  C   UNL     1     -40.834   9.381  61.589  0.00  0.00    +0.000 C 
ATOM     27  C   UNL     1     -41.258   8.615  63.084  0.00  0.00    +0.000 C 
ENDBRANCH  24  25
ENDBRANCH  23  24
ENDBRANCH  22  23
ENDBRANCH  20  22
ENDBRANCH   5  20
BRANCH  19  28
ATOM     28  O   UNL     1     -39.418  19.431  66.619  0.00  0.00    +0.000 OA
ATOM     29  H   UNL     1     -38.965  19.722  66.312  0.00  0.00    +0.000 HD
ENDBRANCH  19  28
TORSDOF 6
ENDMDL
MODEL 7
REMARK VINA RESULT:     -10.0     18.859     20.761
REMARK  Name = 5997
REMARK  11 active torsions:
REMARK  status: ('A' for Active; 'I' for Inactive)
REMARK    1  A    between atoms: O_1  and  C_22
REMARK    2  A    between atoms: C_2  and  C_14
REMARK    3  A    between atoms: C_6  and  C_13
REMARK    4  A    between atoms: C_8  and  C_18
REMARK    5  A    between atoms: C_13  and  C_21
REMARK    6  A    between atoms: C_13  and  C_23
REMARK    7  A    between atoms: C_21  and  C_24
REMARK    8  A    between atoms: C_24  and  C_25
REMARK    9  A    between atoms: C_25  and  C_26
REMARK   10  A    between atoms: C_26  and  C_27
REMARK   11  A    between atoms: C_26  and  C_28
REMARK                            x       y       z     vdW  Elec       q    Type
REMARK                         _______ _______ _______ _____ _____    ______ ____
ROOT
ATOM      1  C   UNL     1     -41.621  14.199  64.413  0.00  0.00    +0.000 C 
ATOM      2  C   UNL     1     -41.022  14.803  63.887  0.00  0.00    +0.000 C 
ATOM      3  C   UNL     1     -40.701  15.661  64.288  0.00  0.00    +0.000 C 
ATOM      4  C   UNL     1     -40.979  15.915  65.215  0.00  0.00    +0.000 C 
ATOM      5  C   UNL     1     -41.827  13.409  63.847  0.00  0.00    +0.000 C 
ATOM      6  C   UNL     1     -41.899  14.453  65.339  0.00  0.00    +0.000 C 
ATOM      7  C   UNL     1     -40.652  16.805  65.646  0.00  0.00    +0.000 C 
ATOM      8  C   UNL     1     -40.863  14.381  63.002  0.00  0.00    +0.000 C 
ATOM      9  C   UNL     1     -41.578  15.311  65.740  0.00  0.00    +0.000 C 
ATOM     10  C   UNL     1     -41.360  13.519  62.977  0.00  0.00    +0.000 C 
ATOM     11  C   UNL     1     -40.077  16.280  63.728  0.00  0.00    +0.000 C 
ATOM     12  C   UNL     1     -42.220  13.595  64.938  0.00  0.00    +0.000 C 
ATOM     13  C   UNL     1     -40.027  17.440  65.104  0.00  0.00    +0.000 C 
ATOM     14  C   UNL     1     -40.967  17.059  66.653  0.00  0.00    +0.000 C 
ATOM     15  C   UNL     1     -39.738  17.176  64.139  0.00  0.00    +0.000 C 
ATOM     16  C   UNL     1     -41.251  16.196  66.165  0.00  0.00    +0.000 C 
ATOM     17  C   UNL     1     -39.674  18.373  65.533  0.00  0.00    +0.000 C 
ATOM     18  C   UNL     1     -40.626  17.987  67.102  0.00  0.00    +0.000 C 
ATOM     19  C   UNL     1     -39.976  18.647  66.538  0.00  0.00    +0.000 C 
ENDROOT
BRANCH   5  20
ATOM     20  C   UNL     1     -42.405  12.635  64.108  0.00  0.00    +0.000 C 
ATOM     21  C   UNL     1     -43.398  12.699  64.016  0.00  0.00    +0.000 C 
BRANCH  20  22
ATOM     22  C   UNL     1     -41.989  11.797  64.462  0.00  0.00    +0.000 C 
BRANCH  22  23
ATOM     23  C   UNL     1     -42.158  10.923  64.006  0.00  0.00    +0.000 C 
BRANCH  23  24
ATOM     24  C   UNL     1     -41.546  10.149  64.166  0.00  0.00    +0.000 C 
BRANCH  24  25
ATOM     25  C   UNL     1     -41.388   9.479  63.441  0.00  0.00    +0.000 C 
ATOM     26  C   UNL     1     -40.506   9.449  62.972  0.00  0.00    +0.000 C 
ATOM     27  C   UNL     1     -42.112   8.838  63.186  0.00  0.00    +0.000 C 
ENDBRANCH  24  25
ENDBRANCH  23  24
ENDBRANCH  22  23
ENDBRANCH  20  22
ENDBRANCH   5  20
BRANCH  19  28
ATOM     28  O   UNL     1     -39.656  19.505  66.942  0.00  0.00    +0.000 OA
ATOM     29  H   UNL     1     -39.445  19.960  66.577  0.00  0.00    +0.000 HD
ENDBRANCH  19  28
TORSDOF 6
ENDMDL
MODEL 8
REMARK VINA RESULT:     -10.0     14.042     16.455
REMARK  Name = 5997
REMARK  11 active torsions:
REMARK  status: ('A' for Active; 'I' for Inactive)
REMARK    1  A    between atoms: O_1  and  C_22
REMARK    2  A    between atoms: C_2  and  C_14
REMARK    3  A    between atoms: C_6  and  C_13
REMARK    4  A    between atoms: C_8  and  C_18
REMARK    5  A    between atoms: C_13  and  C_21
REMARK    6  A    between atoms: C_13  and  C_23
REMARK    7  A    between atoms: C_21  and  C_24
REMARK    8  A    between atoms: C_24  and  C_25
REMARK    9  A    between atoms: C_25  and  C_26
REMARK   10  A    between atoms: C_26  and  C_27
REMARK   11  A    between atoms: C_26  and  C_28
REMARK                            x       y       z     vdW  Elec       q    Type
REMARK                         _______ _______ _______ _____ _____    ______ ____
ROOT
ATOM      1  C   UNL     1     -38.974   6.528  48.893  0.00  0.00    +0.000 C 
ATOM      2  C   UNL     1     -39.105   5.564  49.125  0.00  0.00    +0.000 C 
ATOM      3  C   UNL     1     -38.974   5.255  50.067  0.00  0.00    +0.000 C 
ATOM      4  C   UNL     1     -38.712   5.909  50.776  0.00  0.00    +0.000 C 
ATOM      5  C   UNL     1     -39.149   6.633  47.920  0.00  0.00    +0.000 C 
ATOM      6  C   UNL     1     -38.712   7.183  49.602  0.00  0.00    +0.000 C 
ATOM      7  C   UNL     1     -38.571   5.602  51.762  0.00  0.00    +0.000 C 
ATOM      8  C   UNL     1     -39.359   5.082  48.294  0.00  0.00    +0.000 C 
ATOM      9  C   UNL     1     -38.581   6.873  50.544  0.00  0.00    +0.000 C 
ATOM     10  C   UNL     1     -39.387   5.741  47.550  0.00  0.00    +0.000 C 
ATOM     11  C   UNL     1     -39.113   4.248  50.294  0.00  0.00    +0.000 C 
ATOM     12  C   UNL     1     -38.844   7.492  48.660  0.00  0.00    +0.000 C 
ATOM     13  C   UNL     1     -38.706   4.599  52.012  0.00  0.00    +0.000 C 
ATOM     14  C   UNL     1     -38.287   6.330  52.514  0.00  0.00    +0.000 C 
ATOM     15  C   UNL     1     -38.978   3.918  51.273  0.00  0.00    +0.000 C 
ATOM     16  C   UNL     1     -38.442   6.564  51.521  0.00  0.00    +0.000 C 
ATOM     17  C   UNL     1     -38.565   4.256  53.032  0.00  0.00    +0.000 C 
ATOM     18  C   UNL     1     -38.141   6.010  53.541  0.00  0.00    +0.000 C 
ATOM     19  C   UNL     1     -38.281   4.966  53.801  0.00  0.00    +0.000 C 
ENDROOT
BRANCH   5  20
ATOM     20  C   UNL     1     -39.096   7.487  47.402  0.00  0.00    +0.000 C 
ATOM     21  C   UNL     1     -38.226   7.775  47.003  0.00  0.00    +0.000 C 
BRANCH  20  22
ATOM     22  C   UNL     1     -39.912   8.052  47.285  0.00  0.00    +0.000 C 
BRANCH  22  23
ATOM     23  C   UNL     1     -39.924   8.776  46.594  0.00  0.00    +0.000 C 
BRANCH  23  24
ATOM     24  C   UNL     1     -40.698   9.406  46.544  0.00  0.00    +0.000 C 
BRANCH  24  25
ATOM     25  C   UNL     1     -40.615  10.260  46.031  0.00  0.00    +0.000 C 
ATOM     26  C   UNL     1     -40.921  10.306  45.081  0.00  0.00    +0.000 C 
ATOM     27  C   UNL     1     -40.225  11.071  46.470  0.00  0.00    +0.000 C 
ENDBRANCH  24  25
ENDBRANCH  23  24
ENDBRANCH  22  23
ENDBRANCH  20  22
ENDBRANCH   5  20
BRANCH  19  28
ATOM     28  O   UNL     1     -38.149   4.660  54.744  0.00  0.00    +0.000 OA
ATOM     29  H   UNL     1     -37.846   5.021  55.147  0.00  0.00    +0.000 HD
ENDBRANCH  19  28
TORSDOF 6
ENDMDL
MODEL 9
REMARK VINA RESULT:     -10.0     14.162     16.881
REMARK  Name = 5997
REMARK  11 active torsions:
REMARK  status: ('A' for Active; 'I' for Inactive)
REMARK    1  A    between atoms: O_1  and  C_22
REMARK    2  A    between atoms: C_2  and  C_14
REMARK    3  A    between atoms: C_6  and  C_13
REMARK    4  A    between atoms: C_8  and  C_18
REMARK    5  A    between atoms: C_13  and  C_21
REMARK    6  A    between atoms: C_13  and  C_23
REMARK    7  A    between atoms: C_21  and  C_24
REMARK    8  A    between atoms: C_24  and  C_25
REMARK    9  A    between atoms: C_25  and  C_26
REMARK   10  A    between atoms: C_26  and  C_27
REMARK   11  A    between atoms: C_26  and  C_28
REMARK                            x       y       z     vdW  Elec       q    Type
REMARK                         _______ _______ _______ _____ _____    ______ ____
ROOT
ATOM      1  C   UNL     1     -39.540   8.273  48.734  0.00  0.00    +0.000 C 
ATOM      2  C   UNL     1     -39.214   7.444  49.189  0.00  0.00    +0.000 C 
ATOM      3  C   UNL     1     -38.911   7.482  50.141  0.00  0.00    +0.000 C 
ATOM      4  C   UNL     1     -38.933   8.349  50.639  0.00  0.00    +0.000 C 
ATOM      5  C   UNL     1     -39.792   8.030  47.804  0.00  0.00    +0.000 C 
ATOM      6  C   UNL     1     -39.562   9.140  49.232  0.00  0.00    +0.000 C 
ATOM      7  C   UNL     1     -38.621   8.404  51.631  0.00  0.00    +0.000 C 
ATOM      8  C   UNL     1     -39.268   6.696  48.536  0.00  0.00    +0.000 C 
ATOM      9  C   UNL     1     -39.259   9.178  50.184  0.00  0.00    +0.000 C 
ATOM     10  C   UNL     1     -39.625   7.059  47.681  0.00  0.00    +0.000 C 
ATOM     11  C   UNL     1     -38.574   6.610  50.602  0.00  0.00    +0.000 C 
ATOM     12  C   UNL     1     -39.865   9.102  48.280  0.00  0.00    +0.000 C 
ATOM     13  C   UNL     1     -38.280   7.545  52.111  0.00  0.00    +0.000 C 
ATOM     14  C   UNL     1     -38.655   9.356  52.150  0.00  0.00    +0.000 C 
ATOM     15  C   UNL     1     -38.257   6.641  51.593  0.00  0.00    +0.000 C 
ATOM     16  C   UNL     1     -38.948   9.229  51.170  0.00  0.00    +0.000 C 
ATOM     17  C   UNL     1     -37.950   7.578  53.145  0.00  0.00    +0.000 C 
ATOM     18  C   UNL     1     -38.329   9.414  53.184  0.00  0.00    +0.000 C 
ATOM     19  C   UNL     1     -37.974   8.519  53.684  0.00  0.00    +0.000 C 
ENDROOT
BRANCH   5  20
ATOM     20  C   UNL     1     -40.152   8.656  47.112  0.00  0.00    +0.000 C 
ATOM     21  C   UNL     1     -41.122   8.900  47.114  0.00  0.00    +0.000 C 
BRANCH  20  22
ATOM     22  C   UNL     1     -39.542   9.038  46.418  0.00  0.00    +0.000 C 
BRANCH  22  23
ATOM     23  C   UNL     1     -39.880   9.198  45.489  0.00  0.00    +0.000 C 
BRANCH  23  24
ATOM     24  C   UNL     1     -39.241   9.450  44.762  0.00  0.00    +0.000 C 
BRANCH  24  25
ATOM     25  C   UNL     1     -39.560   9.513  43.817  0.00  0.00    +0.000 C 
ATOM     26  C   UNL     1     -40.324  10.114  43.585  0.00  0.00    +0.000 C 
ATOM     27  C   UNL     1     -39.114   8.973  43.102  0.00  0.00    +0.000 C 
ENDBRANCH  24  25
ENDBRANCH  23  24
ENDBRANCH  22  23
ENDBRANCH  20  22
ENDBRANCH   5  20
BRANCH  19  28
ATOM     28  O   UNL     1     -37.672   8.560  54.636  0.00  0.00    +0.000 OA
ATOM     29  H   UNL     1     -37.461   8.049  54.918  0.00  0.00    +0.000 HD
ENDBRANCH  19  28
TORSDOF 6
ENDMDL
